Circuit: * C:\Git\Redako-L4N\Hardware\Simulations\Gate Driver.asc

Questionable use of curly braces in "b§e_abmgate yint 0 v={if(v(a)>{{vthresh}},{{vdd}},{{vss}})}"
    Error: undefined symbol in: "if([v](a)>((vthresh)),((vdd)),((vss)))"
Questionable use of curly braces in "b§e_abmgate yint 0 v={if(v(a)>{{vthresh}}&v(b)>{{vthresh}},{{vdd}},{{vss}})}"
    Error: undefined symbol in: "if([v](a)>((vthresh))&v(b)>((vthresh)),((vdd)),((vss)))"
Questionable use of curly braces in "b§e_abmgate yint 0 v={if(v(a)>{{vthresh}}|v(b)>{{vthresh}},{{vss}},{{vdd}})}"
    Error: undefined symbol in: "if([v](a)>((vthresh))|v(b)>((vthresh)),((vss)),((vdd)))"
Instance "m:u2:2": Length shorter than recommended for a level 3 MOSFET.
Direct Newton iteration for .op point succeeded.
Heightened Def Con from 1.99908e-009 to 2.00183e-009

Date: Sun Dec 08 21:02:48 2024
Total elapsed time: 0.145 seconds.

tnom = 27
temp = 27
method = modified trap
totiter = 10855
traniter = 10808
tranpoints = 4111
accept = 3286
rejected = 826
matrix size = 81
fillins = 29
solver = Normal
Matrix Compiler1: 4.13 KB object code size  0.7/0.4/[0.2]
Matrix Compiler2: 6.02 KB object code size  0.4/1.6/[0.3]

